*HEADING
Cube test
*NODE
1, 0.0, 0.0, 0.0
2, 1.0, 0.0, 0.0
3, 1.0, 1.0, 0.0
4, 0.0, 1.0, 0.0
5, 0.0, 0.0, 1.0
6, 1.0, 0.0, 1.0
7, 1.0, 1.0, 1.0
8, 0.0, 1.0, 1.0
*ELEMENT, TYPE=C3D8R, ELSET=CUBE
1, 1, 2, 3, 4, 5, 6, 7, 8
*SOLID SECTION, ELSET=CUBE, MATERIAL=STEEL
*MATERIAL, NAME=STEEL
*ELASTIC
200000.0, 0.3
*DENSITY
7.85e-09
