$ Cantilever beam
GRID,1,,0.0,0.0,0.0
GRID,2,,10.0,0.0,0.0
GRID,3,,10.0,1.0,0.0
GRID,4,,0.0,1.0,0.0
GRID,5,,0.0,0.0,1.0
GRID,6,,10.0,0.0,1.0
GRID,7,,10.0,1.0,1.0
GRID,8,,0.0,1.0,1.0
GRID,9,,5.0,0.5,0.0
GRID,10,,5.0,0.5,1.0
CQUAD4,201,1,1,2,3,4
CQUAD4,202,1,5,6,7,8
CQUAD4,203,1,1,2,6,5
CQUAD4,204,1,2,3,7,6
CQUAD4,205,1,3,4,8,7
MAT1,1,200.e9,,0.3,7800.
SPC,100,1,123456
FORCE,200,10,,0.,-1000.,0.,1.
