$ Simple flat plate
GRID,1,,0.0,0.0,0.0
GRID,2,,1.0,0.0,0.0
GRID,3,,1.0,1.0,0.0
GRID,4,,0.0,1.0,0.0
CQUAD4,100,1,1,2,3,4
MAT1,1,200.e9,,0.3,7800.
PSOLID,1,1
